Version 4
SHEET 1 880 680
WIRE 112 48 96 48
WIRE 0 80 0 48
WIRE 0 80 -32 80
WIRE 112 112 112 48
WIRE 112 112 64 112
WIRE -32 128 -32 80
WIRE 64 128 64 112
WIRE 64 144 64 128
WIRE 288 176 288 144
WIRE 336 176 288 176
WIRE 672 208 640 208
WIRE 336 272 288 272
WIRE 640 288 640 208
WIRE 640 288 384 288
WIRE 384 368 384 288
WIRE 384 368 288 368
WIRE 496 368 384 368
WIRE 736 384 544 384
WIRE 224 416 192 416
WIRE 736 416 736 384
WIRE 224 448 224 416
WIRE 240 448 224 448
WIRE 496 464 288 464
FLAG -32 208 0
FLAG 64 208 0
FLAG 384 16 0
FLAG 672 208 out
IOPIN 672 208 Out
FLAG 288 144 V1
IOPIN 288 144 In
FLAG 192 416 V1
IOPIN 192 416 In
FLAG 0 48 V1
IOPIN 0 48 In
FLAG 288 272 V2
IOPIN 288 272 In
FLAG 96 48 V2
IOPIN 96 48 In
FLAG 736 416 V2
IOPIN 736 416 In
SYMBOL voltage 64 112 R0
WINDOW 3 -324 135 Left 2
WINDOW 123 0 0 Left 0
WINDOW 39 0 0 Left 0
SYMATTR InstName V1
SYMATTR Value PULSE(0 5 0 10ns 10ns 3ms 6ms 0)
SYMBOL voltage -32 112 R0
WINDOW 3 -231 176 Left 2
WINDOW 123 0 0 Left 0
WINDOW 39 0 0 Left 0
SYMATTR InstName V2
SYMATTR Value PULSE(0 5 0 10ns 10ns 1ms 2ms 0)
SYMBOL voltage 384 112 R180
WINDOW 0 24 96 Left 2
WINDOW 3 24 16 Left 2
WINDOW 123 0 0 Left 0
WINDOW 39 0 0 Left 0
SYMATTR InstName V3
SYMATTR Value 5v
SYMBOL nmos 336 96 R0
WINDOW 0 -86 380 Left 2
SYMATTR InstName M1
SYMATTR Value Si7336ADP
SYMBOL nmos 336 192 R0
WINDOW 0 146 299 Left 2
SYMATTR InstName M2
SYMBOL pmos 240 368 R0
WINDOW 0 153 -140 Left 2
SYMATTR InstName M4
SYMBOL pmos 544 464 R180
WINDOW 0 119 333 Left 2
SYMATTR InstName M3
